 &NAM_LUNITN
 CINIFILE        = "OCE_IN_T01                  ",
 CINIFILEPGD     = "                            ",
 CCPLFILE        = 24*"                            "
 /
 &NAM_CONFN
 LUSERV  = F,
 LUSERC  = F,
 LUSERR  = F,
 LUSERI  = F,
 LUSERS  = F,
 LUSERG  = F,
 LUSERH  = F,
 LUSECI  = F,
 NSV_USER        =           0
 /
 &NAM_DYNN
 XTSTEP  =   10.0000000000000     ,
 CPRESOPT        = "ZRESI",
 NITR    =           4,
 LITRADJ = F,
 LRES    = F,
 XRES    =  1.000000000000000E-007,
 XRELAX  =   1.00000000000000     ,
 LHORELAX_UVWTH  = F,
 LHORELAX_RV     = F,
 LHORELAX_RC     = F,
 LHORELAX_RR     = F,
 LHORELAX_RI     = F,
 LHORELAX_RS     = F,
 LHORELAX_RG     = F,
 LHORELAX_RH     = F,
 LHORELAX_TKE    = F,
 LHORELAX_SVC2R2 = F,
 LHORELAX_SVC1R3 = F,
 LHORELAX_SVELEC = F,
 LHORELAX_SVCHEM = F,
 LHORELAX_SVCHIC = F,
 LHORELAX_SVLG   = F,
 LHORELAX_SVDST  = F,
 LHORELAX_SVSLT  = F,
 LHORELAX_SVAER  = F,
 LHORELAX_SVPP   = F,
 LHORELAX_SVSNW  = F,
 LHORELAX_SVCS   = F,
 LHORELAX_SV     = 200*F,
 LVE_RELAX       = F,
 LVE_RELAX_GRD   = F,
 LOCEAN  = T,
 NRIMX   =           0,
 NRIMY   =           0,
 XRIMKMAX        =  1.666666666666667E-004,
 XT4DIFU =   480.000000000000     ,
 XT4DIFTH        =   1800.00000000000     ,
 XT4DIFSV        =   1800.00000000000     
 /
 &NAM_ADVN
 CUVW_ADV_SCHEME = "CEN4TH",
 CMET_ADV_SCHEME = "PPM_01",
 CSV_ADV_SCHEME  = "PPM_01",
 CTEMP_SCHEME    = "RKC4",
 NWENO_ORDER     =           3,
 LSPLIT_CFL      = T,
 LSPLIT_WENO     = T,
 XSPLIT_CFL      =  0.800000000000000     ,
 LCFL_WRIT       = F
 /
 &NAM_PARAMN
 CTURB   = "TKEL",
 CRAD    = "NONE",
 CCLOUD  = "NONE",
 CDCONV  = "NONE",
 CSCONV  = "NONE",
 CELEC   = "NONE",
 CACTCCN = "NONE"
 /
 &NAM_LBCN
 CLBCX   = 2*"CYCL",
 CLBCY   = 2*"CYCL",
 NLBLX   = 2*1,
 NLBLY   = 2*1,
 XCPHASE =  0.000000000000000E+000,
 XCPHASE_PBL     =  0.000000000000000E+000,
 XCARPKMAX       =   999.000000000000     ,
 XPOND   =   1.00000000000000     
 /
 &NAM_NUDGINGN
 LNUDGING        = F,
 XTNUDGING       =   21600.0000000000     
 /
 &NAM_TURBN
 XIMPL   =  0.000000000000000E+000,
 CTURBLEN        = "DELT",
 CTURBDIM        = "3DIM",
 LTURB_FLX       = F,
 LTURB_DIAG      = F,
 LSUBG_COND      = F,
 LSIGMAS = T,
 LSIG_CONV       = F,
 LRMC01  = F,
 CTOM    = "NONE",
 CSUBG_AUCV      = "NONE",
 XKEMIN  =  1.000000000000000E-006,
 VSIGQSAT        =  2.000000000000000E-002,
 XCEDIS  =  0.840000000000000     ,
 XCADAP  =  0.500000000000000     ,
 CSUBG_AUCV_RI   = "NONE                                                                            ",
 CCONDENS        = "CB02                                                                            ",
 CLAMBDA3        = "CB  ",
 CSUBG_MF_PDF    = "TRIANGLE                                                                        ",
 LHGRAD  = F,
 XCOEFHGRADTHL   =   1.00000000000000     ,
 XCOEFHGRADRM    =   1.00000000000000     ,
 XALTHGRAD       =   2000.00000000000     ,
 XCLDTHOLD       =  -1.00000000000000     
 /
 &NAM_BLANKN
 XDUMMY1 =  0.000000000000000E+000,
 XDUMMY2 =  0.000000000000000E+000,
 XDUMMY3 =  0.000000000000000E+000,
 XDUMMY4 =  0.000000000000000E+000,
 XDUMMY5 =  0.000000000000000E+000,
 XDUMMY6 =  0.000000000000000E+000,
 XDUMMY7 =  0.000000000000000E+000,
 XDUMMY8 =  0.000000000000000E+000,
 NDUMMY1 =           0,
 NDUMMY2 =           0,
 NDUMMY3 =           0,
 NDUMMY4 =           0,
 NDUMMY5 =           0,
 NDUMMY6 =           0,
 NDUMMY7 =           0,
 NDUMMY8 =           0,
 LDUMMY1 = T,
 LDUMMY2 = T,
 LDUMMY3 = T,
 LDUMMY4 = T,
 LDUMMY5 = T,
 LDUMMY6 = T,
 LDUMMY7 = T,
 LDUMMY8 = T,
 CDUMMY1 = "                                                                                ",
 CDUMMY2 = "                                                                                ",
 CDUMMY3 = "                                                                                ",
 CDUMMY4 = "                                                                                ",
 CDUMMY5 = "                                                                                ",
 CDUMMY6 = "                                                                                ",
 CDUMMY7 = "                                                                                ",
 CDUMMY8 = "                                                                                "
 /
 &NAM_CONF
 CCONF   = "START",
 LFLAT   = T,
 NMODEL  =           1,
 CEQNSYS = "LHE",
 NVERB   =          10,
 CEXP    = "GN_01",
 CSEG    = "OC_01",
 LFORCING        = F,
 NHALO   =           3,
 CSPLIT  = "BSPLITTING",
 LLG     = F,
 LINIT_LG        = F,
 CINIT_LG        = "FMOUT",
 LNOMIXLG        = F,
 LCHECK  = F,
 JPHEXT  =           3
 /
 &NAM_DYN
 XSEGLEN =   259210.000000000     ,
 XASSELIN        =  0.200000000000000     ,
 XASSELIN_SV     =  2.000000000000000E-002,
 LCORIO  = F,
 LNUMDIFU        = T,
 LNUMDIFTH       = F,
 LNUMDIFSV       = F,
 XALKTOP =  1.000000000000000E-002,
 XALZBOT =   4000.00000000000     ,
 LZDIFFU = F,
 XALKGRD =  1.000000000000000E-002,
 XALZBAS =  1.000000000000000E-002
 /
 &NAM_NESTING
 NDAD    = 2*1,           2,           3,           4,           5,           6,           7,
 NDTRATIO        = 8*1,
 XWAY    =  0.000000000000000E+000, 7*2.00000000000000        ,
 LCOUPLES        = F
 /
 &NAM_LES
 LLES_MEAN       = T,
 LLES_RESOLVED   = T,
 LLES_SUBGRID    = T,
 LLES_UPDRAFT    = T,
 LLES_DOWNDRAFT  = T,
 LLES_SPECTRA    = T,
 NLES_LEVELS     =           1,           2,           3,           4,           5,           6,           7,           8,           9,          10,          11,          12,          13,          14,          15,          16,          17,          18,          19,          20,          21,          22,          23,          24,          25,          26,          27,          28,          29,          30,          31,          32,          33,          34,          35,          36,          37,          38,          39,          40,          41,          42,          43,          44,          45,          46,          47,          48,          49,          50,          51,          52,          53,          54,          55,          56,          57,          58,          59,          60,          61,          62,          63,          64,          65,          66,          67,          68,          69,          70,          71,          72,          73,          74,          75,          76,          77,          78,          79,          80,          81,          82,          83,          84,          85,          86,          87,          88,          89,          90,          91,          92,          93,          94,          95,          96,          97,          98,          99,         100, 800*999,
 XLES_ALTITUDES  = 900*999.000000000000        ,
 NSPECTRA_LEVELS =          80, 899*999,
 XSPECTRA_ALTITUDES      = 900*999.000000000000        ,
 NLES_TEMP_SERIE_I       = 10*999,
 NLES_TEMP_SERIE_J       = 10*999,
 NLES_TEMP_SERIE_Z       = 10*999,
 CLES_NORM_TYPE  = "NONE",
 CBL_HEIGHT_DEF  = "KE ",
 XLES_TEMP_SAMPLING      =   3600.00000000000     ,
 XLES_TEMP_MEAN_START    =   999.000000000000     ,
 XLES_TEMP_MEAN_END      =   999.000000000000     ,
 XLES_TEMP_MEAN_STEP     =   3600.00000000000     ,
 LLES_CART_MASK  = F,
 NLES_IINF       =           1,
 NLES_ISUP       =         500,
 NLES_JINF       =           1,
 NLES_JSUP       =         500,
 LLES_NEB_MASK   = F,
 LLES_CORE_MASK  = F,
 LLES_MY_MASK    = F,
 LLES_CS_MASK    = F,
 NLES_MASKS_USER =         999
 /
 &NAM_BLANKN
 XDUMMY1 =  0.000000000000000E+000,
 XDUMMY2 =  0.000000000000000E+000,
 XDUMMY3 =  0.000000000000000E+000,
 XDUMMY4 =  0.000000000000000E+000,
 XDUMMY5 =  0.000000000000000E+000,
 XDUMMY6 =  0.000000000000000E+000,
 XDUMMY7 =  0.000000000000000E+000,
 XDUMMY8 =  0.000000000000000E+000,
 NDUMMY1 =           0,
 NDUMMY2 =           0,
 NDUMMY3 =           0,
 NDUMMY4 =           0,
 NDUMMY5 =           0,
 NDUMMY6 =           0,
 NDUMMY7 =           0,
 NDUMMY8 =           0,
 LDUMMY1 = T,
 LDUMMY2 = T,
 LDUMMY3 = T,
 LDUMMY4 = T,
 LDUMMY5 = T,
 LDUMMY6 = T,
 LDUMMY7 = T,
 LDUMMY8 = T,
 CDUMMY1 = "                                                                                ",
 CDUMMY2 = "                                                                                ",
 CDUMMY3 = "                                                                                ",
 CDUMMY4 = "                                                                                ",
 CDUMMY5 = "                                                                                ",
 CDUMMY6 = "                                                                                ",
 CDUMMY7 = "                                                                                ",
 CDUMMY8 = "                                                                                "
 /
 &NAM_TURB
 XPHI_LIM        =   3.00000000000000     ,
 XSBL_O_BL       =  5.000000000000000E-002,
 XFTOP_O_FSURF   =  5.000000000000000E-002
 /
